mfilt=1,1,1,1,1,1,1,1,1
ndens=1,1,1,1,1,1,1,1,1
nhtfrq=9,9,9,9,9,9,9,9,9
inithist='ENDOFRUN'
fincl9 = 'jo2_a','jo2_b','jo3_a','jo3_b','jh2o_a','jh2o_b','jh2o_c','jho2no2_a','jho2no2_b','jn2o','jno','jcl2','jno2','jno3_a','jno3_b',
         'jhbr','jhcl','jcf2cl2','jh2so4','jso2', 
         'QRS_SO2A','QRS_SO2B','QRS_SO3A','QRS_SO3B', 'QRS_LO2B','QRS_LO3A','QRS_LO3B','QRS_LO3',
radxfr_wavelength_grid_file = 'wavelength_grid_test.nc'
radxfr_input_data_root = '/glade/work/fvitt/camdev/bardeen_rsf/src/chemistry/photolysis/inputs'
