mfilt=1,1,1,1,1,1,1,1,1
ndens=1,1,1,1,1,1,1,1,1
nhtfrq=3,3,3,3,3,3
write_nstep0=.true.
inithist='ENDOFRUN'
pbuf_global_allocate=.false.

ionos_npes = 64

fincl2 = 'GEOGALTp','GEOGALTs1','GEOGALTs2','GEOGLATp','GEOGLONp','Tn_mag',
         'sigma_ped_s1','sigma_ped_s2',
         'sigma_hal_s1','sigma_hal_s2',
         'height_s1','height_s2'

fincl3 = 'T','TnPhysIn','TnPhysOut','SIGMAPED','SIGMAHAL','Z3','Z3GM'

fincl4 = 'Tn_opg0','Tn_opg1'
